/batch
/config,noeldb,1     ! force off writing results to database
*get,_wallstrt,active,,time,wall
! ANSYS input file written by Workbench version 2020 R1
! File used for geometry attach: D:\Ansys 2020\Projects\spoiler\spoilers 3\r8-1-rang20001_asm.stp
/title,unsaved_project--Modal (A5)
*DIM,_wb_ProjectScratch_dir,string,248
_wb_ProjectScratch_dir(1) = 'C:\Users\irfan\AppData\Local\Temp\WB_DESKTOP-DJFF62U_irfan_34704_2\_ProjectScratch\Scr56F5\'
*DIM,_wb_SolverFiles_dir,string,248
_wb_SolverFiles_dir(1) = 'C:\Users\irfan\AppData\Local\Temp\WB_DESKTOP-DJFF62U_irfan_34704_2\unsaved_project_files\dp0\SYS\MECH\'
*DIM,_wb_userfiles_dir,string,248
_wb_userfiles_dir(1) = 'C:\Users\irfan\AppData\Local\Temp\WB_DESKTOP-DJFF62U_irfan_34704_2\unsaved_project_files\user_files\'
/com,--- Data in consistent MKS units. See Solving Units in the help system for more information.
/units,MKS
/nopr
/wb,file,start              !  signify a WB generated input file
/prep7
! Turn off shape checking because checks already performed inside WB mesher.
! See help system for more information.
SHPP,OFF,,NOWARN
/nolist
etcon,set             ! allow ANSYS to choose best KEYOP's for 180x elements
/com,*********** Nodes for the whole assembly ***********
nblock,3,,15943
(1i9,3e20.9e3)
        1    -2.417569461E-01    -5.979193101E-02    -1.775858946E-01
        2     2.719412412E-01    -5.979193101E-02    -1.807564017E-01
        3    -6.482104786E-02    -5.979193101E-02     5.756038560E-02
        4     3.848089890E-02    -5.979193101E-02     2.465352069E-02
        5    -8.290597330E-02    -5.979193101E-02     3.710701651E-02
        6     1.321463482E-01    -5.979193101E-02    -1.698704191E-02
        7     1.034332428E-01    -5.979193101E-02     5.126182749E-02
        8    -3.971711664E-02    -5.979193101E-02     4.681920200E-02
        9     6.879460262E-02    -5.979193101E-02    -3.723118792E-02
       10    -6.252847790E-02    -5.979193101E-02    -3.332228464E-02
       11     2.709596480E-02    -5.979193101E-02     5.640362079E-02
       12     1.605533213E-03    -5.979193101E-02    -3.266680757E-03
       13    -3.753071088E-02    -5.979193101E-02    -1.160443847E-02
       14     6.920388953E-02    -5.979193101E-02    -5.062933379E-03
       15     3.696043129E-03    -5.979193101E-02    -4.632361755E-02
       16    -2.320359218E-01    -5.979193101E-02    -1.774028296E-01
       17     2.639109840E-01    -5.979193101E-02    -1.787145253E-01
       18     2.769389464E-01    -5.979193101E-02    -1.792112206E-01
       19     2.762230832E-01    -5.979193101E-02    -1.740360279E-01
       20    -2.428472475E-01    -5.979193101E-02    -1.815954991E-01
! ... 14475 like lines cut
/wb,elem,start            !  set before creation of elements
/com,*********** Elements for Body 1 "STANDZIREPAYEH00|STANDZIREPAYEH00" ***********
et,1,186
keyo,1,2,1          ! set full integration on SOLID186
eblock,19,solid,,169
(19i9)
        1        1        1        1        0        0        0        0       20        0        1       43       50       51       47       60       53       52       56
      670      683      676      669      691      686      688      697      671      684      685      677
        1        1        1        1        0        0        0        0       20        0        2        6       37       47       51       97       66       56       52
      532      653      676      533      731      698      688      689      534      654      677      685
        1        1        1        1        0        0        0        0       20        0        3        6       51       49       36       97       52       54       67
      533      681      650      531      689      687      693      734      534      685      682      651
        1        1        1        1        0        0        0        0       20        0        4       48       49       51       50       55       54       52       53
      678      681      683      679      692      687      686      690      680      682      685      684
        1        1        1        1        0        0        0        0       20        0        5       14       48       50       43       89       55       53       60
      570      679      670      569      696      690      691      712      571      680      684      671
        1        1        1        1        0        0        0        0       20        0        6        4       44       32       11       99       59       71       92
      524      635      555      520      710      707      744      798      525      672      636      556
        1        1        1        1        0        0        0        0       20        0        7        4       42       12       44       99       61       91       59
      523      561      562      524      716      714      708      710      525      668      563      672
        1        1        1        1        0        0        0        0       20        0        8       12       42       40       15       91       61       63       88
      561      663      573      559      714      713      721      794      563      668      664      574
        1        1        1        1        0        0        0        0       20        0        9        7       35       36       49       96       68       67       54
      536      646      650      538      736      733      693      694      539      647      651      682
        1        1        1        1        0        0        0        0       20        0       10        7       49       48       38       96       54       55       65
      538      678      656      537      694      692      695      727      539      682      680      657
! ... 319 like lines cut
!Material Id = {252C0780-5C79-4D02-A38F-2A102798D782}
/com,*********** Elements for Body 2 "PAYEH30|PAYEH30" ***********
et,2,186
keyo,2,2,1          ! set full integration on SOLID186
eblock,19,solid,,67
(19i9)
        2        2        2        2        0        0        0        0       20        0      994     3942     4125     4123     3943     3945     3984     3983     3944
     4191     4588     4194     4188     4201     4312     4198     4196     4189     4315     4313     4193
        2        2        2        2        0        0        0        0       20        0      995     3937     3942     4148     4147     3950     3945     3958     3957
     4170     4192     4613     4173     4199     4200     4237     4216     4171     4189     4240     4239
        2        2        2        2        0        0        0        0       20        0      996     3942     3943     4149     4148     3945     3944     3955     3958
     4188     4195     4614     4192     4196     4197     4231     4200     4189     4193     4233     4240
        2        2        2        2        0        0        0        0       20        0      997     3943     4123     4122     4149     3944     3983     3982     3955
     4194     4586     4587     4195     4198     4310     4232     4197     4193     4313     4311     4233
        2        2        2        2        0        0        0        0       20        0      998     3960     3961     4048     4049     4145     4146     4057     4053
     4245     4248     4463     4246     4611     4483     4473     4474     4247     4249     4464     4466
        2        2        2        2        0        0        0        0       20        0      999     3959     3960     4049     4050     4144     4145     4053     4054
     4241     4246     4465     4243     4610     4474     4472     4476     4244     4247     4466     4468
        2        2        2        2        0        0        0        0       20        0     1000     3959     4050     4051     3964     4144     4054     4055     4143
     4243     4467     4257     4242     4476     4475     4478     4609     4244     4468     4470     4258
        2        2        2        2        0        0        0        0       20        0     1001     3936     4056     4055     4143     3951     4052     4051     3964
     4165     4477     4478     4168     4221     4469     4257     4219     4164     4471     4470     4258
        2        2        2        2        0        0        0        0       20        0     1002     3978     3979     4017     4018     4130     4131     4081     4082
     4299     4302     4401     4300     4596     4527     4526     4529     4301     4304     4403     4405
        2        2        2        2        0        0        0        0       20        0     1003     3977     3978     4018     4019     4129     4130     4082     4083
     4296     4300     4404     4297     4595     4529     4528     4531     4298     4301     4405     4407
! ... 115 like lines cut
!Material Id = {F1A177A4-E9C8-4C6E-8472-B97DBE05BAC7}
/com,*********** Elements for Body 3 "PAYEH30|PAYEH30[2]" ***********
et,3,186
keyo,3,2,1          ! set full integration on SOLID186
eblock,19,solid,,67
(19i9)
        3        3        3        3        0        0        0        0       20        0     1061     4625     4808     4806     4626     4628     4667     4666     4627
     4874     5271     4877     4871     4884     4995     4881     4879     4872     4998     4996     4876
        3        3        3        3        0        0        0        0       20        0     1062     4620     4625     4831     4830     4633     4628     4641     4640
     4853     4875     5296     4856     4882     4883     4920     4899     4854     4872     4923     4922
        3        3        3        3        0        0        0        0       20        0     1063     4625     4626     4832     4831     4628     4627     4638     4641
     4871     4878     5297     4875     4879     4880     4914     4883     4872     4876     4916     4923
        3        3        3        3        0        0        0        0       20        0     1064     4626     4806     4805     4832     4627     4666     4665     4638
     4877     5269     5270     4878     4881     4993     4915     4880     4876     4996     4994     4916
        3        3        3        3        0        0        0        0       20        0     1065     4643     4644     4731     4732     4828     4829     4740     4736
     4928     4931     5146     4929     5294     5166     5156     5157     4930     4932     5147     5149
        3        3        3        3        0        0        0        0       20        0     1066     4642     4643     4732     4733     4827     4828     4736     4737
     4924     4929     5148     4926     5293     5157     5155     5159     4927     4930     5149     5151
        3        3        3        3        0        0        0        0       20        0     1067     4642     4733     4734     4647     4827     4737     4738     4826
     4926     5150     4940     4925     5159     5158     5161     5292     4927     5151     5153     4941
        3        3        3        3        0        0        0        0       20        0     1068     4619     4739     4738     4826     4634     4735     4734     4647
     4848     5160     5161     4851     4904     5152     4940     4902     4847     5154     5153     4941
        3        3        3        3        0        0        0        0       20        0     1069     4661     4662     4700     4701     4813     4814     4764     4765
     4982     4985     5084     4983     5279     5210     5209     5212     4984     4987     5086     5088
        3        3        3        3        0        0        0        0       20        0     1070     4660     4661     4701     4702     4812     4813     4765     4766
     4979     4983     5087     4980     5278     5212     5211     5214     4981     4984     5088     5090
! ... 115 like lines cut
!Material Id = {48ACB06B-3C0B-4F7C-BAEC-041D7774B2AA}
/com,*********** Elements for Body 4 "ZIRECASE0|ZIRECASE0" ***********
et,4,187
eblock,19,solid,,1413
(19i9)
        4        4        4        4        0        0        0        0       10        0     2632     8830     9381     9059     9220    10135    11168    10127    10131
    11695    11167
        4        4        4        4        0        0        0        0       10        0     2633     8830     9313     9381     9220    10133    12073    10135    10131
    11693    11695
        4        4        4        4        0        0        0        0       10        0     2634     9059     9220     9381     9060    11167    11695    11168    11165
    11171    11172
        4        4        4        4        0        0        0        0       10        0     2635     8830     9381     9069     9059    10135    11197    10129    10127
    11168    11166
        4        4        4        4        0        0        0        0       10        0     2636     8830     9313     8847     9381    10133    10218    10126    10135
    12073    10220
        4        4        4        4        0        0        0        0       10        0     2637     9220     9313     9381     9391    11693    12073    11695    11696
    12074    12171
        4        4        4        4        0        0        0        0       10        0     2638     9059     9381     9069     9060    11168    11197    11166    11165
    11172    11169
        4        4        4        4        0        0        0        0       10        0     2639     9060     9220     9381     9070    11171    11695    11172    11170
    11198    11200
        4        4        4        4        0        0        0        0       10        0     2640     8830     9381     8847     9069    10135    10220    10126    10129
    11197    10217
        4        4        4        4        0        0        0        0       10        0     2641     8830     9347     8847     9313    10134    10219    10126    10133
    12072    10218
! ... 2807 like lines cut
!Material Id = {83845227-9E2D-430B-834C-FDD15FFE6FDC}
/com,*********** Elements for Body 5 "CONECTOTMONITOR0|CONECTOTMONITOR0" ***********
et,5,187
eblock,19,solid,,788
(19i9)
        5        5        5        5        0        0        0        0       10        0      170     1691     2000     1706     1722     2364     2451     2357     2360
     2538     2443
        5        5        5        5        0        0        0        0       10        0      171     1691     2000     1966     1706     2364     3507     2362     2357
     2451     2448
        5        5        5        5        0        0        0        0       10        0      172     1691     1966     2000     1718     2362     3507     2364     2359
     2511     2512
        5        5        5        5        0        0        0        0       10        0      173     1691     2000     1722     1718     2364     2538     2360     2359
     2512     2510
        5        5        5        5        0        0        0        0       10        0      174     1706     2000     1960     1722     2451     3498     2447     2443
     2538     2537
        5        5        5        5        0        0        0        0       10        0      175     1718     1722     1719     2000     2510     2514     2509     2512
     2538     2519
        5        5        5        5        0        0        0        0       10        0      176     1722     1960     1882     2000     2537     3291     2536     2538
     3498     3294
        5        5        5        5        0        0        0        0       10        0      177     1719     1882     2000     1722     2516     3294     2519     2514
     2536     2538
        5        5        5        5        0        0        0        0       10        0      178     1668     1964     1999     1856     2242     3505     2244     2240
     3246     3247
        5        5        5        5        0        0        0        0       10        0      179     1668     1999     1855     1856     2244     3245     2239     2240
     3247     3242
! ... 1557 like lines cut
!Material Id = {EB4453DB-B8C8-4811-AF46-252ED28E86EB}
/com,*********** Elements for Body 6 "PAYEHZIREMONITOR00|PAYEHZIREMONITOR00" ***********
et,6,186
keyo,6,2,1          ! set full integration on SOLID186
eblock,19,solid,,36
(19i9)
        6        6        6        6        0        0        0        0       20        0      958     3550     3582     3583     3563     3647     3603     3604     3646
     3726     3804     3765     3724     3847     3846     3849     3917     3727     3805     3807     3766
        6        6        6        6        0        0        0        0       20        0      959     3562     3563     3583     3584     3644     3646     3604     3605
     3762     3765     3806     3763     3915     3849     3848     3851     3764     3766     3807     3809
        6        6        6        6        0        0        0        0       20        0      960     3561     3562     3584     3585     3643     3644     3605     3606
     3759     3763     3808     3760     3914     3851     3850     3853     3761     3764     3809     3811
        6        6        6        6        0        0        0        0       20        0      961     3560     3561     3585     3586     3642     3643     3606     3607
     3756     3760     3810     3757     3913     3853     3852     3855     3758     3761     3811     3813
        6        6        6        6        0        0        0        0       20        0      962     3559     3560     3586     3587     3641     3642     3607     3608
     3753     3757     3812     3754     3912     3855     3854     3857     3755     3758     3813     3815
        6        6        6        6        0        0        0        0       20        0      963     3558     3559     3587     3588     3640     3641     3608     3609
     3750     3754     3814     3751     3911     3857     3856     3859     3752     3755     3815     3817
        6        6        6        6        0        0        0        0       20        0      964     3557     3558     3588     3589     3639     3640     3609     3610
     3747     3751     3816     3748     3910     3859     3858     3861     3749     3752     3817     3819
        6        6        6        6        0        0        0        0       20        0      965     3556     3557     3589     3590     3638     3639     3610     3611
     3744     3748     3818     3745     3909     3861     3860     3863     3746     3749     3819     3821
        6        6        6        6        0        0        0        0       20        0      966     3555     3556     3590     3591     3637     3638     3611     3612
     3741     3745     3820     3742     3908     3863     3862     3865     3743     3746     3821     3823
        6        6        6        6        0        0        0        0       20        0      967     3554     3555     3591     3592     3636     3637     3612     3613
     3738     3742     3822     3739     3907     3865     3864     3867     3740     3743     3823     3825
! ... 53 like lines cut
!Material Id = {0FE9775C-D86D-40D6-87AF-86A58F2F7BBA}
/com,*********** Elements for Body 7 "R8-KIBORDSATH000|R8-KIBORDSATH000" ***********
et,7,187
eblock,19,solid,,1504
(19i9)
        7        7        7        7        0        0        0        0       10        0     1128     5576     5900     5579     5878     7574     7592     7570     7573
     8623     7590
        7        7        7        7        0        0        0        0       10        0     1129     5575     5576     5579     5878     7559     7570     7560     7563
     7573     7590
        7        7        7        7        0        0        0        0       10        0     1130     5579     5878     5900     5847     7590     8623     7592     7589
     8481     8485
        7        7        7        7        0        0        0        0       10        0     1131     5576     5878     5860     5900     7573     8553     7572     7574
     8623     8556
        7        7        7        7        0        0        0        0       10        0     1132     5576     5578     5579     5900     7569     7582     7570     7574
     7586     7592
        7        7        7        7        0        0        0        0       10        0     1133     5575     5579     5886     5878     7560     7591     7564     7563
     7590     8622
        7        7        7        7        0        0        0        0       10        0     1134     5575     5838     5576     5878     7562     7571     7559     7563
     8418     7573
        7        7        7        7        0        0        0        0       10        0     1135     5579     5878     5847     5886     7590     8481     7589     7591
     8622     8483
        7        7        7        7        0        0        0        0       10        0     1136     5579     5900     5582     5847     7592     7607     7588     7589
     8485     7605
        7        7        7        7        0        0        0        0       10        0     1137     5576     5860     5578     5900     7572     7585     7569     7574
     8556     7586
! ... 2989 like lines cut
!Material Id = {DD2C7CF0-88CC-4DC0-A61F-92113A188702}
/com,*********** Elements for Body 8 "MONITORSATH0|MONITORSATH0" ***********
et,8,187
eblock,19,solid,,1007
(19i9)
        8        8        8        8        0        0        0        0       10        0     4045    12174    12389    12579    12226    12636    13925    12638    12634
    12978    12980
        8        8        8        8        0        0        0        0       10        0     4046    12223    12567    12226    12224    12963    12979    12961    12960
    12968    12965
        8        8        8        8        0        0        0        0       10        0     4047    12175    12567    12389    12223    12646    13923    12645    12644
    12963    12962
        8        8        8        8        0        0        0        0       10        0     4048    12174    12579    12227    12226    12638    12985    12635    12634
    12980    12977
        8        8        8        8        0        0        0        0       10        0     4049    12174    12579    12389    12176    12638    13925    12636    12633
    12654    12651
        8        8        8        8        0        0        0        0       10        0     4050    12176    12577    12579    12389    12653    14452    12654    12651
    13924    13925
        8        8        8        8        0        0        0        0       10        0     4051    12221    12567    12223    12224    12957    12963    12954    12955
    12968    12960
        8        8        8        8        0        0        0        0       10        0     4052    12175    12567    12223    12222    12646    12963    12644    12643
    12959    12958
        8        8        8        8        0        0        0        0       10        0     4053    12174    12539    12579    12176    12637    14345    12638    12633
    12652    12654
        8        8        8        8        0        0        0        0       10        0     4054    12224    12567    12595    12229    12968    14407    12969    12966
    12999    13000
! ... 1995 like lines cut
!Material Id = {C46467B0-C5BF-4B4E-B8F3-116ABD5B177C}
/wb,elem,end               !  done creating elements
/com,*********** Send User Defined Coordinate System(s) ***********
csys,0
toffst,273.15,  ! Temperature offset from absolute zero
/com,*********** Set Reference Temperature ***********
tref,22.
/wb,mat,start              !  starting to send materials
/com,*********** Send Materials ***********
Temperature = 'TEMP' ! Temperature
MP,DENS,1,7850,	! kg m^-3
MP,ALPX,1,1.2e-05,	! C^-1
MP,C,1,434,	! J kg^-1 C^-1
MP,KXX,1,60.5,	! W m^-1 C^-1
MP,RSVX,1,1.7e-07,	! kg m^3 A^-2 s^-3
MP,EX,1,200000000000,	! Pa
MP,NUXY,1,0.3,
MP,MURX,1,10000,

Temperature = 'TEMP' ! Temperature
MP,DENS,2,7850,	! kg m^-3
MP,ALPX,2,1.2e-05,	! C^-1
MP,C,2,434,	! J kg^-1 C^-1
MP,KXX,2,60.5,	! W m^-1 C^-1
MP,RSVX,2,1.7e-07,	! kg m^3 A^-2 s^-3
MP,EX,2,200000000000,	! Pa
MP,NUXY,2,0.3,
MP,MURX,2,10000,

Temperature = 'TEMP' ! Temperature
MP,DENS,3,7850,	! kg m^-3
MP,ALPX,3,1.2e-05,	! C^-1
MP,C,3,434,	! J kg^-1 C^-1
MP,KXX,3,60.5,	! W m^-1 C^-1
MP,RSVX,3,1.7e-07,	! kg m^3 A^-2 s^-3
MP,EX,3,200000000000,	! Pa
MP,NUXY,3,0.3,
MP,MURX,3,10000,

Temperature = 'TEMP' ! Temperature
MP,DENS,4,7850,	! kg m^-3
MP,ALPX,4,1.2e-05,	! C^-1
MP,C,4,434,	! J kg^-1 C^-1
MP,KXX,4,60.5,	! W m^-1 C^-1
MP,RSVX,4,1.7e-07,	! kg m^3 A^-2 s^-3
MP,EX,4,200000000000,	! Pa
MP,NUXY,4,0.3,
MP,MURX,4,10000,

Temperature = 'TEMP' ! Temperature
MP,DENS,5,7850,	! kg m^-3
MP,ALPX,5,1.2e-05,	! C^-1
MP,C,5,434,	! J kg^-1 C^-1
MP,KXX,5,60.5,	! W m^-1 C^-1
MP,RSVX,5,1.7e-07,	! kg m^3 A^-2 s^-3
MP,EX,5,200000000000,	! Pa
MP,NUXY,5,0.3,
MP,MURX,5,10000,

Temperature = 'TEMP' ! Temperature
MP,DENS,6,7850,	! kg m^-3
MP,ALPX,6,1.2e-05,	! C^-1
MP,C,6,434,	! J kg^-1 C^-1
MP,KXX,6,60.5,	! W m^-1 C^-1
MP,RSVX,6,1.7e-07,	! kg m^3 A^-2 s^-3
MP,EX,6,200000000000,	! Pa
MP,NUXY,6,0.3,
MP,MURX,6,10000,

Temperature = 'TEMP' ! Temperature
MP,DENS,7,7850,	! kg m^-3
MP,ALPX,7,1.2e-05,	! C^-1
MP,C,7,434,	! J kg^-1 C^-1
MP,KXX,7,60.5,	! W m^-1 C^-1
MP,RSVX,7,1.7e-07,	! kg m^3 A^-2 s^-3
MP,EX,7,200000000000,	! Pa
MP,NUXY,7,0.3,
MP,MURX,7,10000,

Temperature = 'TEMP' ! Temperature
MP,DENS,8,7850,	! kg m^-3
MP,ALPX,8,1.2e-05,	! C^-1
MP,C,8,434,	! J kg^-1 C^-1
MP,KXX,8,60.5,	! W m^-1 C^-1
MP,RSVX,8,1.7e-07,	! kg m^3 A^-2 s^-3
MP,EX,8,200000000000,	! Pa
MP,NUXY,8,0.3,
MP,MURX,8,10000,

/wb,mat,end                !  done sending materials
!************************* Model Summary ********************
!STANDZIREPAYEH00|STANDZIREPAYEH00,	Structural Steel,	matid,	1
!PAYEH30|PAYEH30,	Structural Steel,	matid,	2
!PAYEH30|PAYEH30[2],	Structural Steel,	matid,	3
!ZIRECASE0|ZIRECASE0,	Structural Steel,	matid,	4
!CONECTOTMONITOR0|CONECTOTMONITOR0,	Structural Steel,	matid,	5
!PAYEHZIREMONITOR00|PAYEHZIREMONITOR00,	Structural Steel,	matid,	6
!R8-KIBORDSATH000|R8-KIBORDSATH000,	Structural Steel,	matid,	7
!MONITORSATH0|MONITORSATH0,	Structural Steel,	matid,	8
!************************* End Model Summary ********************
! get the diagonal of the bounding box. Needed later for other things
*get,_xmin,node,,mnloc,x
*get,_ymin,node,,mnloc,y
*get,_zmin,node,,mnloc,z
*get,_xmax,node,,mxloc,x
*get,_ymax,node,,mxloc,y
*get,_zmax,node,,mxloc,z
_ASMDIAG=(_xmax-_xmin)*(_xmax-_xmin)+(_ymax-_ymin)*(_ymax-_ymin)+(_zmax-_zmin)*(_zmax-_zmin)
_ASMDIAG=SQRT(_ASMDIAG)
/wb,contact,start          !  starting to send contact
/com,*********** Create Contact "Contact Region" ***********
/com,            Real Constant Set For Above Contact Is 10 & 9 
*set,tid,10
*set,cid,9
r,tid
r,cid
et,tid,170
et,cid,174
eblock,10,,,6
(15i9)
    10416       10       10       10        0       98      360      359      100      809     1433      811      808
    10417       10       10       10        0       98      458      466      360      810     1573     1436      809
    10418       10       10       10        0       75      456      458       98      759     1572      810      758
    10419       10       10       10        0       93      457      456       75      802     1571      759      757
    10420       10       10       10        0       93      321      320      457      801     1359     1360      802
    10421       10       10       10        0      457      320      319      455     1360     1357     1358     1570
-1
eblock,10,,,6
(15i9)
    10422        9        9        9        0       98      360      359      100      809     1433      811      808
    10423        9        9        9        0       98      458      466      360      810     1573     1436      809
    10424        9        9        9        0       75      456      458       98      759     1572      810      758
    10425        9        9        9        0       93      457      456       75      802     1571      759      757
    10426        9        9        9        0       93      321      320      457      801     1359     1360      802
    10427        9        9        9        0      457      320      319      455     1360     1357     1358     1570
-1
eblock,10,,,2
(15i9)
    10428        9       10        9        0     4078     4026     4027     4080     4420     4419     4421     4522
    10429        9       10        9        0     4079     4025     4026     4078     4418     4417     4420     4521
-1
eblock,10,,,2
(15i9)
    10430       10        9       10        0     4078     4026     4027     4080     4420     4419     4421     4522
    10431       10        9       10        0     4079     4025     4026     4078     4418     4417     4420     4521
-1
keyo,cid,8,2               ! auto create asymmetric contact (from Program Controlled setting)
keyo,cid,10,0              ! adjust contact stiffness each NR iteration (from Program Controlled setting)
keyo,cid,12,5              ! bonded always
keyo,cid,18,1              ! small sliding turned on by application
keyo,cid,2,0               ! augmented Lagrange (from Program Controlled setting)
keyo,cid,4,0               ! on Gauss point (from Program Controlled setting)
keyo,cid,9,1               ! ignore initial gaps/penetration
keyo,cid,7,0               ! No Prediction
rmod,tid,3,10.      ! FKN
rmod,tid,5,0.       ! ICONT
rmod,tid,6,0.       ! PINB
rmod,tid,10,0.      ! CNOF
rmod,tid,12,0.      ! FKT
rmod,tid,36,45      ! WB DSID
rmod,cid,3,10.      ! FKN
rmod,cid,5,0.       ! ICONT
rmod,cid,6,0.       ! PINB
rmod,cid,10,0.      ! CNOF
rmod,cid,12,0.      ! FKT
rmod,cid,36,45      ! WB DSID
/com,*********** Create Contact "Contact Region 2" ***********
/com,            Real Constant Set For Above Contact Is 12 & 11 
*set,tid,12
*set,cid,11
r,tid
r,cid
et,tid,170
et,cid,174
eblock,10,,,12
(15i9)
    10432       12       12       12        0       56       60       53       52      697      691      686      688
    10433       12       12       12        0       56       52       97       66      688      689      731      698
    10434       12       12       12        0       97       52       54       67      689      687      693      734
    10435       12       12       12        0       54       96       68       67      694      736      733      693
    10436       12       12       12        0       60       56       77       76      697      699      760      711
    10437       12       12       12        0       77       56       66       78      699      698      730      763
    10438       12       12       12        0       96      387      386       68      806     1494      737      736
    10439       12       12       12        0       97      412      418       66      807     1522      732      731
    10440       12       12       12        0       67      410      412       97      735     1521      807      734
    10441       12       12       12        0       68      411      410       67      738     1520      735      733
    10442       12       12       12        0      386      409      411       68     1495     1519      738      737
    10443       12       12       12        0      386      385      401      409     1492     1493     1512     1495
-1
eblock,10,,,12
(15i9)
    10444       11       11       11        0       56       60       53       52      697      691      686      688
    10445       11       11       11        0       56       52       97       66      688      689      731      698
    10446       11       11       11        0       97       52       54       67      689      687      693      734
    10447       11       11       11        0       54       96       68       67      694      736      733      693
    10448       11       11       11        0       60       56       77       76      697      699      760      711
    10449       11       11       11        0       77       56       66       78      699      698      730      763
    10450       11       11       11        0       96      387      386       68      806     1494      737      736
    10451       11       11       11        0       97      412      418       66      807     1522      732      731
    10452       11       11       11        0       67      410      412       97      735     1521      807      734
    10453       11       11       11        0       68      411      410       67      738     1520      735      733
    10454       11       11       11        0      386      409      411       68     1495     1519      738      737
    10455       11       11       11        0      386      385      401      409     1492     1493     1512     1495
-1
eblock,10,,,2
(15i9)
    10456       11       12       11        0     4761     4709     4710     4763     5103     5102     5104     5205
    10457       11       12       11        0     4762     4708     4709     4761     5101     5100     5103     5204
-1
eblock,10,,,2
(15i9)
    10458       12       11       12        0     4761     4709     4710     4763     5103     5102     5104     5205
    10459       12       11       12        0     4762     4708     4709     4761     5101     5100     5103     5204
-1
keyo,cid,8,2               ! auto create asymmetric contact (from Program Controlled setting)
keyo,cid,10,0              ! adjust contact stiffness each NR iteration (from Program Controlled setting)
keyo,cid,12,5              ! bonded always
keyo,cid,18,1              ! small sliding turned on by application
keyo,cid,2,0               ! augmented Lagrange (from Program Controlled setting)
keyo,cid,4,0               ! on Gauss point (from Program Controlled setting)
keyo,cid,9,1               ! ignore initial gaps/penetration
keyo,cid,7,0               ! No Prediction
rmod,tid,3,10.      ! FKN
rmod,tid,5,0.       ! ICONT
rmod,tid,6,0.       ! PINB
rmod,tid,10,0.      ! CNOF
rmod,tid,12,0.      ! FKT
rmod,tid,36,48      ! WB DSID
rmod,cid,3,10.      ! FKN
rmod,cid,5,0.       ! ICONT
rmod,cid,6,0.       ! PINB
rmod,cid,10,0.      ! CNOF
rmod,cid,12,0.      ! FKT
rmod,cid,36,48      ! WB DSID
/com,*********** Create Contact "Contact Region 3" ***********
/com,            Real Constant Set For Above Contact Is 14 & 13 
*set,tid,14
*set,cid,13
r,tid
r,cid
et,tid,170
et,cid,174
eblock,10,,,9
(15i9)
    10460       14       14       14        0     4080     4081     4131     4131     4524     4527     4131     4525
    10461       14       14       14        0     4133     4119     3933     3933     4582     4154     3933     4155
    10462       14       14       14        0     3933     3934     3939     3939     4151     4156     3939     4152
    10463       14       14       14        0     4130     4131     4081     4082     4596     4527     4526     4529
    10464       14       14       14        0     4129     4130     4082     4083     4595     4529     4528     4531
    10465       14       14       14        0     4134     4118     4119     4133     4580     4579     4582     4599
    10466       14       14       14        0     4131     4132     3939     4080     4597     4180     4179     4525
    10467       14       14       14        0     4132     4133     3933     3939     4598     4155     4152     4180
    10468       14       14       14        0     4119     4120     3934     3933     4581     4159     4151     4154
-1
eblock,10,,,9
(15i9)
    10469       13       13       13        0     4080     4081     4131     4131     4524     4527     4131     4525
    10470       13       13       13        0     4133     4119     3933     3933     4582     4154     3933     4155
    10471       13       13       13        0     3933     3934     3939     3939     4151     4156     3939     4152
    10472       13       13       13        0     4130     4131     4081     4082     4596     4527     4526     4529
    10473       13       13       13        0     4129     4130     4082     4083     4595     4529     4528     4531
    10474       13       13       13        0     4134     4118     4119     4133     4580     4579     4582     4599
    10475       13       13       13        0     4131     4132     3939     4080     4597     4180     4179     4525
    10476       13       13       13        0     4132     4133     3933     3939     4598     4155     4152     4180
    10477       13       13       13        0     4119     4120     3934     3933     4581     4159     4151     4154
-1
eblock,10,,,19
(15i9)
    10478       13       14       13        0     8953     8954     9112     9112    10697    10707     9112    10701
    10479       13       14       13        0     8951     9109     9164     9164    10689    11308     9164    10690
    10480       13       14       13        0     8882     9161     9111     9111    10386    11314     9111    10384
    10481       13       14       13        0     8744     9113     8878     8878     9584    10361     8878     9580
    10482       13       14       13        0     9160     9110     9109     9109    11312    11306     9109    11307
    10483       13       14       13        0     8738     9110     9160     9160     9534    11312     9160     9535
    10484       13       14       13        0     8881     9163     9164     9164    10378    11438     9164    10379
    10485       13       14       13        0     8953     9112     9113     9113    10701    11318     9113    10702
    10486       13       14       13        0     8881     9111     9163     9163    10377    11315     9163    10378
    10487       13       14       13        0     8881     9164     9109     9109    10379    11308     9109    10376
    10488       13       14       13        0     8955     9163     9111     9111    10713    11315     9111    10711
    10489       13       14       13        0     8738     8880     9110     9110     9531    10371     9110     9534
    10490       13       14       13        0     8951     8952     9109     9109    10685    10695     9109    10689
    10491       13       14       13        0     8744     8953     9113     9113     9581    10702     9113     9584
    10492       13       14       13        0     8954     9162     9112     9112    10708    11319     9112    10707
    10493       13       14       13        0     8955     9111     9161     9161    10711    11314     9161    10712
    10494       13       14       13        0     8952     9160     9109     9109    10696    11307     9109    10695
    10495       13       14       13        0     8882     9112     9162     9162    10385    11319     9162    10387
    10496       13       14       13        0     8882     9162     9161     9161    10387    11434     9161    10386
-1
eblock,10,,,19
(15i9)
    10497       14       13       14        0     8953     8954     9112     9112    10697    10707     9112    10701
    10498       14       13       14        0     8951     9109     9164     9164    10689    11308     9164    10690
    10499       14       13       14        0     8882     9161     9111     9111    10386    11314     9111    10384
    10500       14       13       14        0     8744     9113     8878     8878     9584    10361     8878     9580
    10501       14       13       14        0     9160     9110     9109     9109    11312    11306     9109    11307
    10502       14       13       14        0     8738     9110     9160     9160     9534    11312     9160     9535
    10503       14       13       14        0     8881     9163     9164     9164    10378    11438     9164    10379
    10504       14       13       14        0     8953     9112     9113     9113    10701    11318     9113    10702
    10505       14       13       14        0     8881     9111     9163     9163    10377    11315     9163    10378
    10506       14       13       14        0     8881     9164     9109     9109    10379    11308     9109    10376
    10507       14       13       14        0     8955     9163     9111     9111    10713    11315     9111    10711
    10508       14       13       14        0     8738     8880     9110     9110     9531    10371     9110     9534
    10509       14       13       14        0     8951     8952     9109     9109    10685    10695     9109    10689
    10510       14       13       14        0     8744     8953     9113     9113     9581    10702     9113     9584
    10511       14       13       14        0     8954     9162     9112     9112    10708    11319     9112    10707
    10512       14       13       14        0     8955     9111     9161     9161    10711    11314     9161    10712
    10513       14       13       14        0     8952     9160     9109     9109    10696    11307     9109    10695
    10514       14       13       14        0     8882     9112     9162     9162    10385    11319     9162    10387
    10515       14       13       14        0     8882     9162     9161     9161    10387    11434     9161    10386
-1
keyo,cid,8,2               ! auto create asymmetric contact (from Program Controlled setting)
keyo,cid,10,0              ! adjust contact stiffness each NR iteration (from Program Controlled setting)
keyo,cid,12,5              ! bonded always
keyo,cid,18,1              ! small sliding turned on by application
keyo,cid,2,0               ! augmented Lagrange (from Program Controlled setting)
keyo,cid,4,0               ! on Gauss point (from Program Controlled setting)
keyo,cid,9,1               ! ignore initial gaps/penetration
keyo,cid,7,0               ! No Prediction
rmod,tid,3,10.      ! FKN
rmod,tid,5,0.       ! ICONT
rmod,tid,6,0.       ! PINB
rmod,tid,10,0.      ! CNOF
rmod,tid,12,0.      ! FKT
rmod,tid,36,51      ! WB DSID
rmod,cid,3,10.      ! FKN
rmod,cid,5,0.       ! ICONT
rmod,cid,6,0.       ! PINB
rmod,cid,10,0.      ! CNOF
rmod,cid,12,0.      ! FKT
rmod,cid,36,51      ! WB DSID
/com,*********** Create Contact "Contact Region 4" ***********
/com,            Real Constant Set For Above Contact Is 16 & 15 
*set,tid,16
*set,cid,15
r,tid
r,cid
et,tid,170
et,cid,174
eblock,10,,,7
(15i9)
    10516       16       16       16        0     4060     4061     4095     4095     4489     4492     4095     4490
    10517       16       16       16        0     4062     4095     4061     4061     4494     4492     4061     4491
    10518       16       16       16        0     4094     4063     4064     4093     4496     4495     4498     4545
    10519       16       16       16        0     4095     4062     4063     4094     4494     4493     4496     4546
    10520       16       16       16        0     4096     4059     4060     4095     4488     4487     4490     4547
    10521       16       16       16        0     4097     4058     4059     4096     4486     4484     4488     4548
    10522       16       16       16        0     4098     4070     4058     4097     4507     4485     4486     4549
-1
eblock,10,,,7
(15i9)
    10523       15       15       15        0     4060     4061     4095     4095     4489     4492     4095     4490
    10524       15       15       15        0     4062     4095     4061     4061     4494     4492     4061     4491
    10525       15       15       15        0     4094     4063     4064     4093     4496     4495     4498     4545
    10526       15       15       15        0     4095     4062     4063     4094     4494     4493     4496     4546
    10527       15       15       15        0     4096     4059     4060     4095     4488     4487     4490     4547
    10528       15       15       15        0     4097     4058     4059     4096     4486     4484     4488     4548
    10529       15       15       15        0     4098     4070     4058     4097     4507     4485     4486     4549
-1
eblock,10,,,50
(15i9)
    10530       15       16       15        0     1669     1670     1867     1867     2245     2257     1867     2248
    10531       15       16       15        0     1630     1866     1975     1975     2008     3266     1975     2009
    10532       15       16       15        0     1634     1975     1667     1667     2035     2235     1667     2033
    10533       15       16       15        0     1670     1674     1867     1867     2253     2277     1867     2257
    10534       15       16       15        0     1632     1867     1673     1673     2025     2275     1673     2024
    10535       15       16       15        0     1670     1868     1674     1674     2258     2278     1674     2253
    10536       15       16       15        0     1632     1669     1867     1867     2023     2248     1867     2025
    10537       15       16       15        0     1633     1634     1669     1669     2027     2034     1669     2030
    10538       15       16       15        0     1632     1673     1665     1665     2024     2223     1665     2022
    10539       15       16       15        0     1632     1633     1669     1669     2017     2030     1669     2023
    10540       15       16       15        0     1664     1665     1673     1673     2219     2223     1673     2220
    10541       15       16       15        0     1664     1673     1866     1866     2220     2274     1866     2222
    10542       15       16       15        0     1666     1975     1866     1866     2227     3266     1866     2226
    10543       15       16       15        0     1630     1975     1634     1634     2009     2035     1634     2004
    10544       15       16       15        0     1671     1681     1676     1676     2262     2286     1676     2260
    10545       15       16       15        0     1667     1975     1864     1864     2235     3262     1864     2232
    10546       15       16       15        0     1664     1866     1630     1630     2222     2008     1630     2006
    10547       15       16       15        0     1634     1667     1669     1669     2033     2229     1669     2034
    10548       15       16       15        0     1675     1678     1679     1679     2279     2293     1679     2280
    10549       15       16       15        0     1675     1679     1869     1869     2280     2295     1869     2283
! ... 31 like lines cut
eblock,10,,,50
(15i9)
    10580       16       15       16        0     1669     1670     1867     1867     2245     2257     1867     2248
    10581       16       15       16        0     1630     1866     1975     1975     2008     3266     1975     2009
    10582       16       15       16        0     1634     1975     1667     1667     2035     2235     1667     2033
    10583       16       15       16        0     1670     1674     1867     1867     2253     2277     1867     2257
    10584       16       15       16        0     1632     1867     1673     1673     2025     2275     1673     2024
    10585       16       15       16        0     1670     1868     1674     1674     2258     2278     1674     2253
    10586       16       15       16        0     1632     1669     1867     1867     2023     2248     1867     2025
    10587       16       15       16        0     1633     1634     1669     1669     2027     2034     1669     2030
    10588       16       15       16        0     1632     1673     1665     1665     2024     2223     1665     2022
    10589       16       15       16        0     1632     1633     1669     1669     2017     2030     1669     2023
    10590       16       15       16        0     1664     1665     1673     1673     2219     2223     1673     2220
    10591       16       15       16        0     1664     1673     1866     1866     2220     2274     1866     2222
    10592       16       15       16        0     1666     1975     1866     1866     2227     3266     1866     2226
    10593       16       15       16        0     1630     1975     1634     1634     2009     2035     1634     2004
    10594       16       15       16        0     1671     1681     1676     1676     2262     2286     1676     2260
    10595       16       15       16        0     1667     1975     1864     1864     2235     3262     1864     2232
    10596       16       15       16        0     1664     1866     1630     1630     2222     2008     1630     2006
    10597       16       15       16        0     1634     1667     1669     1669     2033     2229     1669     2034
    10598       16       15       16        0     1675     1678     1679     1679     2279     2293     1679     2280
    10599       16       15       16        0     1675     1679     1869     1869     2280     2295     1869     2283
! ... 31 like lines cut
keyo,cid,8,2               ! auto create asymmetric contact (from Program Controlled setting)
keyo,cid,10,0              ! adjust contact stiffness each NR iteration (from Program Controlled setting)
keyo,cid,12,5              ! bonded always
keyo,cid,18,1              ! small sliding turned on by application
keyo,cid,2,0               ! augmented Lagrange (from Program Controlled setting)
keyo,cid,4,0               ! on Gauss point (from Program Controlled setting)
keyo,cid,9,1               ! ignore initial gaps/penetration
keyo,cid,7,0               ! No Prediction
rmod,tid,3,10.      ! FKN
rmod,tid,5,0.       ! ICONT
rmod,tid,6,0.       ! PINB
rmod,tid,10,0.      ! CNOF
rmod,tid,12,0.      ! FKT
rmod,tid,36,54      ! WB DSID
rmod,cid,3,10.      ! FKN
rmod,cid,5,0.       ! ICONT
rmod,cid,6,0.       ! PINB
rmod,cid,10,0.      ! CNOF
rmod,cid,12,0.      ! FKT
rmod,cid,36,54      ! WB DSID
/com,*********** Create Contact "Contact Region 5" ***********
/com,            Real Constant Set For Above Contact Is 18 & 17 
*set,tid,18
*set,cid,17
r,tid
r,cid
et,tid,170
et,cid,174
eblock,10,,,2
(15i9)
    10630       18       18       18        0     4099     4005     4006     4100     4367     4364     4368     4551
    10631       18       18       18        0     4098     4014     4005     4099     4396     4365     4367     4550
-1
eblock,10,,,2
(15i9)
    10632       17       17       17        0     4099     4005     4006     4100     4367     4364     4368     4551
    10633       17       17       17        0     4098     4014     4005     4099     4396     4365     4367     4550
-1
eblock,10,,,10
(15i9)
    10634       17       18       17        0     5848     5907     5866     5866     8490     8587     5866     8486
    10635       17       18       17        0     5842     5888     5861     5861     8448     8558     5861     8446
    10636       17       18       17        0     5866     5887     5902     5902     8584     8648     5902     8586
    10637       17       18       17        0     5861     5894     5896     5896     8559     8662     5896     8560
    10638       17       18       17        0     5853     5887     5866     5866     8520     8584     5866     8517
    10639       17       18       17        0     5853     5866     5888     5888     8517     8585     5888     8521
    10640       17       18       17        0     5861     5888     5907     5907     8558     8650     5907     8562
    10641       17       18       17        0     5842     5861     5896     5896     8446     8560     5896     8449
    10642       17       18       17        0     5848     5866     5902     5902     8486     8586     5902     8489
    10643       17       18       17        0     5866     5907     5888     5888     8587     8650     5888     8585
-1
eblock,10,,,10
(15i9)
    10644       18       17       18        0     5848     5907     5866     5866     8490     8587     5866     8486
    10645       18       17       18        0     5842     5888     5861     5861     8448     8558     5861     8446
    10646       18       17       18        0     5866     5887     5902     5902     8584     8648     5902     8586
    10647       18       17       18        0     5861     5894     5896     5896     8559     8662     5896     8560
    10648       18       17       18        0     5853     5887     5866     5866     8520     8584     5866     8517
    10649       18       17       18        0     5853     5866     5888     5888     8517     8585     5888     8521
    10650       18       17       18        0     5861     5888     5907     5907     8558     8650     5907     8562
    10651       18       17       18        0     5842     5861     5896     5896     8446     8560     5896     8449
    10652       18       17       18        0     5848     5866     5902     5902     8486     8586     5902     8489
    10653       18       17       18        0     5866     5907     5888     5888     8587     8650     5888     8585
-1
keyo,cid,8,2               ! auto create asymmetric contact (from Program Controlled setting)
keyo,cid,10,0              ! adjust contact stiffness each NR iteration (from Program Controlled setting)
keyo,cid,12,5              ! bonded always
keyo,cid,18,1              ! small sliding turned on by application
keyo,cid,2,0               ! augmented Lagrange (from Program Controlled setting)
keyo,cid,4,0               ! on Gauss point (from Program Controlled setting)
keyo,cid,9,1               ! ignore initial gaps/penetration
keyo,cid,7,0               ! No Prediction
rmod,tid,3,10.      ! FKN
rmod,tid,5,0.       ! ICONT
rmod,tid,6,0.       ! PINB
rmod,tid,10,0.      ! CNOF
rmod,tid,12,0.      ! FKT
rmod,tid,36,57      ! WB DSID
rmod,cid,3,10.      ! FKN
rmod,cid,5,0.       ! ICONT
rmod,cid,6,0.       ! PINB
rmod,cid,10,0.      ! CNOF
rmod,cid,12,0.      ! FKT
rmod,cid,36,57      ! WB DSID
/com,*********** Create Contact "Contact Region 6" ***********
/com,            Real Constant Set For Above Contact Is 20 & 19 
*set,tid,20
*set,cid,19
r,tid
r,cid
et,tid,170
et,cid,174
eblock,10,,,9
(15i9)
    10654       20       20       20        0     4710     4662     4700     4700     4986     4985     4700     5085
    10655       20       20       20        0     4656     4637     4677     4677     4911     4912     4677     4967
    10656       20       20       20        0     4637     4631     4636     4636     4892     4891     4636     4908
    10657       20       20       20        0     4700     4662     4661     4701     4985     4982     4983     5084
    10658       20       20       20        0     4701     4661     4660     4702     4983     4979     4980     5087
    10659       20       20       20        0     4677     4676     4648     4656     5016     4944     4943     4967
    10660       20       20       20        0     4631     4655     4662     4710     4893     4965     4986     4894
    10661       20       20       20        0     4637     4656     4655     4631     4911     4964     4893     4892
    10662       20       20       20        0     4636     4678     4677     4637     4909     5018     4912     4908
-1
eblock,10,,,9
(15i9)
    10663       19       19       19        0     4710     4662     4700     4700     4986     4985     4700     5085
    10664       19       19       19        0     4656     4637     4677     4677     4911     4912     4677     4967
    10665       19       19       19        0     4637     4631     4636     4636     4892     4891     4636     4908
    10666       19       19       19        0     4700     4662     4661     4701     4985     4982     4983     5084
    10667       19       19       19        0     4701     4661     4660     4702     4983     4979     4980     5087
    10668       19       19       19        0     4677     4676     4648     4656     5016     4944     4943     4967
    10669       19       19       19        0     4631     4655     4662     4710     4893     4965     4986     4894
    10670       19       19       19        0     4637     4656     4655     4631     4911     4964     4893     4892
    10671       19       19       19        0     4636     4678     4677     4637     4909     5018     4912     4908
-1
eblock,10,,,19
(15i9)
    10672       19       20       19        0     8961     8962     9083     9083    10733    10742     9083    10738
    10673       19       20       19        0     8724     9084     8859     8859     9441    10271     8859     9438
    10674       19       20       19        0     8963     8965     9080     9080    10745    10761     9080    10749
    10675       19       20       19        0     8965     9081     9080     9080    10762    11223     9080    10761
    10676       19       20       19        0     8961     9083     9175     9175    10738    11234     9175    10739
    10677       19       20       19        0     8964     9173     9082     9082    10755    11229     9082    10753
    10678       19       20       19        0     8964     9082     9171     9171    10753    11228     9171    10754
    10679       19       20       19        0     8759     9081     8965     8965     9680    10762     8965     9677
    10680       19       20       19        0     8863     9171     9082     9082    10292    11228     9082    10290
    10681       19       20       19        0     8862     9174     9080     9080    10285    11224     9080    10282
    10682       19       20       19        0     8863     9172     9171     9171    10293    11444     9171    10292
    10683       19       20       19        0     8863     9083     9172     9172    10291    11233     9172    10293
    10684       19       20       19        0     8724     9175     9084     9084     9442    11238     9084     9441
    10685       19       20       19        0     8962     9172     9083     9083    10743    11233     9083    10742
    10686       19       20       19        0     8862     9082     9173     9173    10283    11229     9173    10284
    10687       19       20       19        0     8862     9173     9174     9174    10284    11448     9174    10285
    10688       19       20       19        0     8963     9080     9174     9174    10749    11224     9174    10750
    10689       19       20       19        0     8759     8861     9081     9081     9676    10279     9081     9680
    10690       19       20       19        0     9175     9083     9084     9084    11234    11232     9084    11238
-1
eblock,10,,,19
(15i9)
    10691       20       19       20        0     8961     8962     9083     9083    10733    10742     9083    10738
    10692       20       19       20        0     8724     9084     8859     8859     9441    10271     8859     9438
    10693       20       19       20        0     8963     8965     9080     9080    10745    10761     9080    10749
    10694       20       19       20        0     8965     9081     9080     9080    10762    11223     9080    10761
    10695       20       19       20        0     8961     9083     9175     9175    10738    11234     9175    10739
    10696       20       19       20        0     8964     9173     9082     9082    10755    11229     9082    10753
    10697       20       19       20        0     8964     9082     9171     9171    10753    11228     9171    10754
    10698       20       19       20        0     8759     9081     8965     8965     9680    10762     8965     9677
    10699       20       19       20        0     8863     9171     9082     9082    10292    11228     9082    10290
    10700       20       19       20        0     8862     9174     9080     9080    10285    11224     9080    10282
    10701       20       19       20        0     8863     9172     9171     9171    10293    11444     9171    10292
    10702       20       19       20        0     8863     9083     9172     9172    10291    11233     9172    10293
    10703       20       19       20        0     8724     9175     9084     9084     9442    11238     9084     9441
    10704       20       19       20        0     8962     9172     9083     9083    10743    11233     9083    10742
    10705       20       19       20        0     8862     9082     9173     9173    10283    11229     9173    10284
    10706       20       19       20        0     8862     9173     9174     9174    10284    11448     9174    10285
    10707       20       19       20        0     8963     9080     9174     9174    10749    11224     9174    10750
    10708       20       19       20        0     8759     8861     9081     9081     9676    10279     9081     9680
    10709       20       19       20        0     9175     9083     9084     9084    11234    11232     9084    11238
-1
keyo,cid,8,2               ! auto create asymmetric contact (from Program Controlled setting)
keyo,cid,10,0              ! adjust contact stiffness each NR iteration (from Program Controlled setting)
keyo,cid,12,5              ! bonded always
keyo,cid,18,1              ! small sliding turned on by application
keyo,cid,2,0               ! augmented Lagrange (from Program Controlled setting)
keyo,cid,4,0               ! on Gauss point (from Program Controlled setting)
keyo,cid,9,1               ! ignore initial gaps/penetration
keyo,cid,7,0               ! No Prediction
rmod,tid,3,10.      ! FKN
rmod,tid,5,0.       ! ICONT
rmod,tid,6,0.       ! PINB
rmod,tid,10,0.      ! CNOF
rmod,tid,12,0.      ! FKT
rmod,tid,36,60      ! WB DSID
rmod,cid,3,10.      ! FKN
rmod,cid,5,0.       ! ICONT
rmod,cid,6,0.       ! PINB
rmod,cid,10,0.      ! CNOF
rmod,cid,12,0.      ! FKT
rmod,cid,36,60      ! WB DSID
/com,*********** Create Contact "Contact Region 7" ***********
/com,            Real Constant Set For Above Contact Is 22 & 21 
*set,tid,22
*set,cid,21
r,tid
r,cid
et,tid,170
et,cid,174
eblock,10,,,2
(15i9)
    10710       22       22       22        0     4782     4688     4689     4783     5050     5047     5051     5234
    10711       22       22       22        0     4781     4697     4688     4782     5079     5048     5050     5233
-1
eblock,10,,,2
(15i9)
    10712       21       21       21        0     4782     4688     4689     4783     5050     5047     5051     5234
    10713       21       21       21        0     4781     4697     4688     4782     5079     5048     5050     5233
-1
eblock,10,,,10
(15i9)
    10714       21       22       21        0     5852     5854     5881     5881     8510     8525     5881     8513
    10715       21       22       21        0     5840     5871     5884     5884     8433     8609     5884     8434
    10716       21       22       21        0     5840     5884     5856     5856     8434     8533     5856     8431
    10717       21       22       21        0     5856     5884     5901     5901     8533     8640     5901     8536
    10718       21       22       21        0     5840     5854     5852     5852     8430     8510     5852     8429
    10719       21       22       21        0     5854     5890     5881     5881     8526     8631     5881     8525
    10720       21       22       21        0     5846     5890     5854     5854     8478     8526     5854     8476
    10721       21       22       21        0     5846     5854     5892     5892     8476     8527     5892     8479
    10722       21       22       21        0     5840     5856     5854     5854     8431     8524     5854     8430
    10723       21       22       21        0     5856     5892     5854     5854     8535     8527     5854     8524
-1
eblock,10,,,10
(15i9)
    10724       22       21       22        0     5852     5854     5881     5881     8510     8525     5881     8513
    10725       22       21       22        0     5840     5871     5884     5884     8433     8609     5884     8434
    10726       22       21       22        0     5840     5884     5856     5856     8434     8533     5856     8431
    10727       22       21       22        0     5856     5884     5901     5901     8533     8640     5901     8536
    10728       22       21       22        0     5840     5854     5852     5852     8430     8510     5852     8429
    10729       22       21       22        0     5854     5890     5881     5881     8526     8631     5881     8525
    10730       22       21       22        0     5846     5890     5854     5854     8478     8526     5854     8476
    10731       22       21       22        0     5846     5854     5892     5892     8476     8527     5892     8479
    10732       22       21       22        0     5840     5856     5854     5854     8431     8524     5854     8430
    10733       22       21       22        0     5856     5892     5854     5854     8535     8527     5854     8524
-1
keyo,cid,8,2               ! auto create asymmetric contact (from Program Controlled setting)
keyo,cid,10,0              ! adjust contact stiffness each NR iteration (from Program Controlled setting)
keyo,cid,12,5              ! bonded always
keyo,cid,18,1              ! small sliding turned on by application
keyo,cid,2,0               ! augmented Lagrange (from Program Controlled setting)
keyo,cid,4,0               ! on Gauss point (from Program Controlled setting)
keyo,cid,9,1               ! ignore initial gaps/penetration
keyo,cid,7,0               ! No Prediction
rmod,tid,3,10.      ! FKN
rmod,tid,5,0.       ! ICONT
rmod,tid,6,0.       ! PINB
rmod,tid,10,0.      ! CNOF
rmod,tid,12,0.      ! FKT
rmod,tid,36,63      ! WB DSID
rmod,cid,3,10.      ! FKN
rmod,cid,5,0.       ! ICONT
rmod,cid,6,0.       ! PINB
rmod,cid,10,0.      ! CNOF
rmod,cid,12,0.      ! FKT
rmod,cid,36,63      ! WB DSID
/com,*********** Create Contact "Contact Region 8" ***********
/com,            Real Constant Set For Above Contact Is 24 & 23 
*set,tid,24
*set,cid,23
r,tid
r,cid
et,tid,170
et,cid,174
eblock,10,,,27
(15i9)
    10734       24       24       24        0     1938     1940     1945     1945     3459     3468     1945     3461
    10735       24       24       24        0     1754     1938     1939     1939     2755     3458     1939     2756
    10736       24       24       24        0     1938     1944     1946     1946     3460     3479     1946     3462
    10737       24       24       24        0     1754     1889     1938     1938     2752     3317     1938     2755
    10738       24       24       24        0     1938     1946     1940     1940     3462     3469     1940     3459
    10739       24       24       24        0     1938     1945     1939     1939     3461     3464     1939     3458
    10740       24       24       24        0     1939     1945     1948     1948     3464     3481     1948     3465
    10741       24       24       24        0     1940     1942     1945     1945     3467     3473     1945     3468
    10742       24       24       24        0     1769     1893     1942     1942     2849     3332     1942     2852
    10743       24       24       24        0     1769     1942     1940     1940     2852     3467     1940     2851
    10744       24       24       24        0     1756     1757     1944     1944     2762     2770     1944     2765
    10745       24       24       24        0     1755     1756     1944     1944     2757     2765     1944     2760
    10746       24       24       24        0     1753     1755     1944     1944     2744     2760     1944     2749
    10747       24       24       24        0     1757     1890     1944     1944     2768     3321     1944     2770
    10748       24       24       24        0     1753     1944     1889     1889     2749     3318     1889     2747
    10749       24       24       24        0     1889     1944     1938     1938     3318     3460     1938     3317
    10750       24       24       24        0     1736     1945     1884     1884     2622     3301     1884     2617
    10751       24       24       24        0     1884     1945     1942     1942     3301     3473     1942     3300
    10752       24       24       24        0     1890     1946     1944     1944     3322     3479     1944     3321
    10753       24       24       24        0     1736     1948     1945     1945     2623     3481     1945     2622
! ... 8 like lines cut
eblock,10,,,27
(15i9)
    10761       23       23       23        0     1938     1940     1945     1945     3459     3468     1945     3461
    10762       23       23       23        0     1754     1938     1939     1939     2755     3458     1939     2756
    10763       23       23       23        0     1938     1944     1946     1946     3460     3479     1946     3462
    10764       23       23       23        0     1754     1889     1938     1938     2752     3317     1938     2755
    10765       23       23       23        0     1938     1946     1940     1940     3462     3469     1940     3459
    10766       23       23       23        0     1938     1945     1939     1939     3461     3464     1939     3458
    10767       23       23       23        0     1939     1945     1948     1948     3464     3481     1948     3465
    10768       23       23       23        0     1940     1942     1945     1945     3467     3473     1945     3468
    10769       23       23       23        0     1769     1893     1942     1942     2849     3332     1942     2852
    10770       23       23       23        0     1769     1942     1940     1940     2852     3467     1940     2851
    10771       23       23       23        0     1756     1757     1944     1944     2762     2770     1944     2765
    10772       23       23       23        0     1755     1756     1944     1944     2757     2765     1944     2760
    10773       23       23       23        0     1753     1755     1944     1944     2744     2760     1944     2749
    10774       23       23       23        0     1757     1890     1944     1944     2768     3321     1944     2770
    10775       23       23       23        0     1753     1944     1889     1889     2749     3318     1889     2747
    10776       23       23       23        0     1889     1944     1938     1938     3318     3460     1938     3317
    10777       23       23       23        0     1736     1945     1884     1884     2622     3301     1884     2617
    10778       23       23       23        0     1884     1945     1942     1942     3301     3473     1942     3300
    10779       23       23       23        0     1890     1946     1944     1944     3322     3479     1944     3321
    10780       23       23       23        0     1736     1948     1945     1945     2623     3481     1945     2622
! ... 8 like lines cut
eblock,10,,,4
(15i9)
    10788       23       24       23        0     3620     3579     3580     3617     3799     3798     3801     3873
    10789       23       24       23        0     3619     3578     3579     3620     3797     3796     3799     3877
    10790       23       24       23        0     3618     3577     3578     3619     3795     3794     3797     3874
    10791       23       24       23        0     3621     3576     3577     3618     3793     3792     3795     3875
-1
eblock,10,,,4
(15i9)
    10792       24       23       24        0     3620     3579     3580     3617     3799     3798     3801     3873
    10793       24       23       24        0     3619     3578     3579     3620     3797     3796     3799     3877
    10794       24       23       24        0     3618     3577     3578     3619     3795     3794     3797     3874
    10795       24       23       24        0     3621     3576     3577     3618     3793     3792     3795     3875
-1
keyo,cid,8,2               ! auto create asymmetric contact (from Program Controlled setting)
keyo,cid,10,0              ! adjust contact stiffness each NR iteration (from Program Controlled setting)
keyo,cid,12,5              ! bonded always
keyo,cid,18,1              ! small sliding turned on by application
keyo,cid,2,0               ! augmented Lagrange (from Program Controlled setting)
keyo,cid,4,0               ! on Gauss point (from Program Controlled setting)
keyo,cid,9,1               ! ignore initial gaps/penetration
keyo,cid,7,0               ! No Prediction
rmod,tid,3,10.      ! FKN
rmod,tid,5,0.       ! ICONT
rmod,tid,6,0.       ! PINB
rmod,tid,10,0.      ! CNOF
rmod,tid,12,0.      ! FKT
rmod,tid,36,66      ! WB DSID
rmod,cid,3,10.      ! FKN
rmod,cid,5,0.       ! ICONT
rmod,cid,6,0.       ! PINB
rmod,cid,10,0.      ! CNOF
rmod,cid,12,0.      ! FKT
rmod,cid,36,66      ! WB DSID
/com,*********** Create Contact "Contact Region 9" ***********
/com,            Real Constant Set For Above Contact Is 26 & 25 
*set,tid,26
*set,cid,25
r,tid
r,cid
et,tid,170
et,cid,174
eblock,10,,,2
(15i9)
    10796       26       26       26        0     3599     3597     3598     3600     3835     3834     3836     3837
    10797       26       26       26        0     3601     3596     3597     3599     3833     3832     3835     3838
-1
eblock,10,,,2
(15i9)
    10798       25       25       25        0     3599     3597     3598     3600     3835     3834     3836     3837
    10799       25       25       25        0     3601     3596     3597     3599     3833     3832     3835     3838
-1
eblock,10,,,9
(15i9)
    10800       25       26       25        0    12575    12592    12576    12576    14447    14450    12576    14443
    10801       25       26       25        0    12575    12586    12584    12584    14445    14473    12584    14444
    10802       25       26       25        0    12575    12590    12586    12586    14446    14477    12586    14445
    10803       25       26       25        0    12568    12575    12576    12576    14409    14443    12576    14410
    10804       25       26       25        0    12566    12575    12568    12568    14399    14409    12568    14398
    10805       25       26       25        0    12575    12584    12592    12592    14444    14474    12592    14447
    10806       25       26       25        0    12568    12576    12585    12585    14410    14449    12585    14412
    10807       25       26       25        0    12568    12585    12589    12589    14412    14476    12589    14413
    10808       25       26       25        0    12566    12590    12575    12575    14401    14446    12575    14399
-1
eblock,10,,,9
(15i9)
    10809       26       25       26        0    12575    12592    12576    12576    14447    14450    12576    14443
    10810       26       25       26        0    12575    12586    12584    12584    14445    14473    12584    14444
    10811       26       25       26        0    12575    12590    12586    12586    14446    14477    12586    14445
    10812       26       25       26        0    12568    12575    12576    12576    14409    14443    12576    14410
    10813       26       25       26        0    12566    12575    12568    12568    14399    14409    12568    14398
    10814       26       25       26        0    12575    12584    12592    12592    14444    14474    12592    14447
    10815       26       25       26        0    12568    12576    12585    12585    14410    14449    12585    14412
    10816       26       25       26        0    12568    12585    12589    12589    14412    14476    12589    14413
    10817       26       25       26        0    12566    12590    12575    12575    14401    14446    12575    14399
-1
keyo,cid,8,2               ! auto create asymmetric contact (from Program Controlled setting)
keyo,cid,10,0              ! adjust contact stiffness each NR iteration (from Program Controlled setting)
keyo,cid,12,5              ! bonded always
keyo,cid,18,1              ! small sliding turned on by application
keyo,cid,2,0               ! augmented Lagrange (from Program Controlled setting)
keyo,cid,4,0               ! on Gauss point (from Program Controlled setting)
keyo,cid,9,1               ! ignore initial gaps/penetration
keyo,cid,7,0               ! No Prediction
rmod,tid,3,10.      ! FKN
rmod,tid,5,0.       ! ICONT
rmod,tid,6,0.       ! PINB
rmod,tid,10,0.      ! CNOF
rmod,tid,12,0.      ! FKT
rmod,tid,36,69      ! WB DSID
rmod,cid,3,10.      ! FKN
rmod,cid,5,0.       ! ICONT
rmod,cid,6,0.       ! PINB
rmod,cid,10,0.      ! CNOF
rmod,cid,12,0.      ! FKT
rmod,cid,36,69      ! WB DSID
nsel,all
esel,all
/wb,contact,end            !  done creating contacts
/golist
/wb,load,start             !  starting to send loads
/com,*********** Fixed Supports ***********
CMBLOCK,_FIXEDSU,NODE,      688
(8i10)
         1         2         3         4         5         6         7         8
         9        10        11        12        13        14        15        16
        17        18        19        20        21        22        23        24
        25        26        27        28        29        30        31        32
        33        34        35        36        37        38        39        40
        41        42        43        44        45        46        47        48
        49        50        51       103       104       105       106       107
       108       109       110       111       112       113       114       115
       116       117       118       119       120       121       122       123
       124       125       126       127       128       129       130       131
       132       133       134       135       136       137       138       139
       140       141       142       143       144       145       146       147
       148       149       150       151       152       153       154       155
       156       157       158       159       160       161       162       163
       164       165       166       167       168       169       170       171
       172       173       174       175       176       177       178       179
       180       181       182       183       184       185       186       187
       188       189       190       191       192       193       194       195
       196       197       198       199       200       201       202       203
       204       205       206       207       208       209       210       211
! ... 66 like lines cut

cmsel,s,_FIXEDSU
d,all,all
nsel,all
/gst,on,on
fini
*get,_numnode,node,0,count
*get,_numelem,elem,0,count
*get, _MAXELEMNUM, elem, 0, NUM, MAX
*get, _MAXNODENUM, node, 0, NUM, MAX
*get, _MAXELEMTYPE, etyp, 0, NUM, MAX
*get, _MAXREALCONST, real, 0, NUM, MAX
/go
/wb,load,end               !  done creating loads
/com,--- Number of total nodes = %_numnode%
/com,--- Number of contact elements = 402
/com,--- Number of spring elements = 0
/com,--- Number of bearing elements = 0
/com,--- Number of solid elements = 5051
/com,--- Number of condensed parts = 0
/com,--- Number of total elements = %_numelem%
*get,_wallbsol,active,,time,wall
/solu
antype,2                   ! modal analysis
_thickRatio=  0     ! Ratio of thick parts in the model
modopt,lanb,60
outres,erase
outres,all,none
outres,nsol,all
outres,etmp,all
mxpand                    ! default expand in case of complex solution
dmpopt,esav,no
dmpopt,emat,no
dmpopt,full,no
! *********** WB SOLVE COMMAND ***********
! check interactive state
*get,ANSINTER_,active,,int
*if,ANSINTER_,ne,0,then
/eof
*endif
solve
/com *************** Write FE CONNECTORS ********* 
CEWRITE,file,ce,,INTE
*get,_nmodalsolproc,active,0,numcpu
fini
/nopr
*get,_numnode,node,0,count
*get,_numelem,elem,0,count
*get, _MAXELEMNUM, elem, 0, NUM, MAX
*get, _MAXNODENUM, node, 0, NUM, MAX,,,INTERNAL
*get, _MAXELEMTYPE, etyp, 0, NUM, MAX
*get, _MAXREALCONST, real, 0, NUM, MAX
/gopr
*get,_wallasol,active,,time,wall
/post1
/nopr
*dim,_direction,CHAR,6,1
_direction(1) = 'X'
_direction(2) = 'Y'
_direction(3) = 'Z'
_direction(4) = 'ROTX'
_direction(5) = 'ROTY'
_direction(6) = 'ROTZ'
*get,_lastLS,active,0,set,LSTP
*get,_beginset,active,0,set,nset,first,_lastLS
*get,_endset,active,0,set,nset,last,_lastLS
_nummodes = 0
*if,_endset,gt,0,then
_nummodes = _endset - _beginset + 1
*endif
*do,i_mode,1,_nummodes
   *do,j_component,1,6
			*get,PFACT_%i_mode%_%j_component%,MODE,%i_mode%,PFACT,,DIREC,_direction(%j_component%)
   *enddo
*enddo
*dim,_tmdirection,CHAR,6,1
_tmdirection(1) = 'X'
_tmdirection(2) = 'Y'
_tmdirection(3) = 'Z'
_tmdirection(4) = 'X'
_tmdirection(5) = 'Y'
_tmdirection(6) = 'Z'
*do,j_component,1,6
    *if,j_component,gt,3,then
        *get,TOTALMASS_%j_component%,ELEM,0,IOR,_tmdirection(%j_component%)
    *else
        *get,TOTALMASS_%j_component%,ELEM,0,MTOT,_tmdirection(%j_component%)
    *endif
*enddo
/gopr
xmlo,ENCODING,ISO-8859-1
xmlo,parm
/xml,parm,xml
fini
/gopr
*get,_walldone,active,,time,wall
_preptime=(_wallbsol-_wallstrt)*3600
_solvtime=(_wallasol-_wallbsol)*3600
_posttime=(_walldone-_wallasol)*3600
_totaltim=(_walldone-_wallstrt)*3600
*get,_dlbratio,active,0,solu,dlbr
*get,_combtime,active,0,solu,comb
/com,--- Number of total nodes = %_numnode%
/com,--- Number of total elements = %_numelem%
/com,--- Element load balance ratio = %_dlbratio%
/com,--- Time to combine distributed files = %_combtime%
/wb,file,end               ! done with WB generated input
